Git is a distributed version control system.
Git is free software distributed under the GPL.
Git has a mutable index called stage.
Test Origin Push.
New line.
New line 01.
GitHub New Line 01.
Creating a new branch is quick.
